LTspice 24.1.3 for Windows
Circuit: C:\electric\Draft3.net
Start Time: Tue Jun 24 20:15:28 2025
solver = Normal
Maximum thread count: 4
tnom = 27
temp = 27
method = trap
WARNING: Node n009 is floating.

Direct Newton iteration for .op point succeeded.
Total elapsed time: 0.440 seconds.

Files loaded:
C:\electric\Draft3.net
C:\Users\Admin\AppData\Local\LTspice\lib\cmp\standard.mos

