LTspice 24.1.3 for Windows
Circuit: C:\Users\Admin\Downloads\Final Bode plot.net
Start Time: Sun Aug 24 23:28:44 2025
solver = Normal
Maximum thread count: 4
tnom = 27
temp = 27
method = trap
WARNING: Node n003 is floating.
WARNING: Node n002 is floating.
WARNING: Node n004 is floating.
WARNING: Node n009 is floating.
WARNING: Node n008 is floating.
WARNING: Node n010 is floating.

Instance "M1": Length shorter than recommended for a level 1 MOSFET.
Instance "M5": Length shorter than recommended for a level 1 MOSFET.
Instance "M5": Width narrower than recommended for a level 1 MOSFET.
Instance "M8": Length shorter than recommended for a level 1 MOSFET.
Instance "M8": Width narrower than recommended for a level 1 MOSFET.
Instance "M2": Length shorter than recommended for a level 1 MOSFET.
Instance "M7": Length shorter than recommended for a level 1 MOSFET.
Instance "M4": Length shorter than recommended for a level 1 MOSFET.
Instance "M4": Width narrower than recommended for a level 1 MOSFET.
Instance "M3": Length shorter than recommended for a level 1 MOSFET.
Instance "M3": Width narrower than recommended for a level 1 MOSFET.
Instance "M6": Length shorter than recommended for a level 1 MOSFET.
Direct Newton iteration for .op point succeeded.
Total elapsed time: 0.179 seconds.

Files loaded:
C:\Users\Admin\Downloads\Final Bode plot.net
C:\Users\Admin\AppData\Local\LTspice\lib\cmp\standard.mos

